test/data/converted_20180612T054349Z_v1_psse2mpc_GO3000_new_perfect.m
function mpc = converted_20180612T054349Z_v1_psse2mpc_GO3000_new_perfect
%CONVERTED_20180612T054349Z_V1_PSSE2MPC_GO3000_NEW_PERFECT
%   PSS(R)E-33.7    MON, MAY 21 2018  13:31
%   0,   100.00, 30, 0, 1,  60.00     / PSS(R)E 30 RAW CREATED B
%   0,   100.00, 30, 0, 1,  60.00     / PSS(R)E 30 RAW CREATED B
%
%   Converted by MATPOWER 6.0 using PSSE2MPC on 11-Jun-2018
%   from '/home/drp/public_html/prod/sites/default/files/GO3000_new_perfect.raw' using PSS/E rev 33 format.
%
%   WARNINGS:
%       Section label mismatch, found 'VSC DC LINE', expected 'VOLTAGE SOURCE CONVERTER'
%       Skipped 38 lines of zone data.
%       Section label mismatch, found 'FACTS DEVICE', expected 'FACTS CONTROL DEVICE'
%       Section label mismatch, found 'GNE', expected 'GNE DEVICE'
%
%   See CASEFORMAT for details on the MATPOWER case file format.

%% MATPOWER Case Format : Version 2
mpc.version = '2';

%%-----  Power Flow Data  -----%%
%% system MVA base
mpc.baseMVA = 100;

%% bus data
%	bus_i	type	Pd	Qd	Gs	Bs	area	Vm	Va	baseKV	zone	Vmax	Vmin
mpc.bus = [
	1	1	0.1	-1.05	0	4.106	1	0.98199	62.2201	138	1	1.1	0.9;
	2	2	0	0	0	0	1	0.99873	64.8598	20	1	1.1	0.9;
	3	1	-7.61	2.37	0	0	1	0.98686	62.7112	138	1	1.1	0.9;
	4	1	0.1	-0.34	0	0	1	0.9849	62.6708	138	1	1.1	0.9;
	5	1	0.1	-0.19	0	0	1	0.97976	62.4247	138	1	1.1	0.9;
	6	2	0	0	0	0	1	0.99868	65.0634	20	1	1.1	0.9;
	7	1	-19.32	6.4	0	0	1	0.9853	63.3197	138	1	1.1	0.9;
	8	1	-41.65	13.4	0	0	1	0.98574	63.2828	138	1	1.1	0.9;
	9	1	0.1	-0.24	0	0	1	0.98679	62.7294	138	1	1.1	0.9;
	10	2	-6.7	-8.98	0	0	1	0.9816	60.421	138	1	1.1	0.9;
	11	1	96.285	-2.526	0	0	1	0.96692	56.6646	138	1	1.1	0.9;
	12	2	-10.41	-7.41	0	38.43	1	0.98667	62.7715	138	1	1.1	0.9;
	13	1	0.1	0.08	0	0	1	0.99356	63.0685	138	1	1.1	0.9;
	14	1	0.1	-2.08	0	0	1	0.97503	59.8282	138	1	1.1	0.9;
	15	2	0	0	0	0	1	0.99873	64.8598	20	1	1.1	0.9;
	16	2	0	0	0	0	1	0.99868	65.0625	20	1	1.1	0.9;
	17	2	0.1	-1.53	0	28.753	1	0.982	62.2468	138	1	1.1	0.9;
	18	1	119.1	59.5	0	21.06	1	0.9741	59.7491	138	1	1.1	0.9;
	19	1	32.84	13.07	0	5.26	1	0.98151	60.4841	138	1	1.1	0.9;
	20	1	-0.54	-5.8	0	0	1	0.98607	61.6931	138	1	1.1	0.9;
	21	1	-10.71	2.92	0	0	1	0.98387	61.9921	138	1	1.1	0.9;
	22	1	0.1	-4.36	0	0	1	0.98177	60.528	138	1	1.1	0.9;
	23	1	0.1	-2.42	0	0	1	0.98691	62.6794	138	1	1.1	0.9;
	24	2	0	0	0	0	1	0.99868	65.0625	20	1	1.1	0.9;
	25	1	0.1	-1.09	0	1.74	1	0.98139	60.3676	138	1	1.1	0.9;
	26	2	0	0	0	0	1	0.99873	64.8598	20	1	1.1	0.9;
	27	2	0	0	0	0	1	0.99868	65.0625	20	1	1.1	0.9;
	28	1	0.1	-0.38	0	0	1	0.98198	62.249	138	1	1.1	0.9;
	29	1	160.2	89.9	0	0	1	0.98195	62.2395	138	1	1.1	0.9;
	30	2	160.2	88.7	0	-5.21	1	0.97972	62.4212	138	1	1.1	0.9;
	31	1	18.45	9.499	0	0	1	0.97969	62.4181	138	1	1.1	0.9;
	32	1	-15.12	4.75	0	0	1	0.98542	61.6238	138	1	1.1	0.9;
	33	1	0.1	-1.32	0	1.08	1	0.98505	61.474	138	1	1.1	0.9;
	34	2	0	0	0	0	1	0.99868	65.0625	20	1	1.1	0.9;
	35	1	0.1	-3.06	0	0	1	0.98385	61.7963	138	1	1.1	0.9;
	36	1	0.1	-1.77	0	0	1	0.98506	62.9759	138	1	1.1	0.9;
	37	1	0.1	-0.36	0	0	1	0.98151	62.505	138	1	1.1	0.9;
	38	1	0	0	0	0	1	0.9741	59.7491	138	1	1.1	0.9;
	39	1	0.1	-0.35	0	0	1	0.98323	62.5889	138	1	1.1	0.9;
	40	1	0.117	0.12	0	0	1	0.99363	63.0722	138	1	1.1	0.9;
	41	1	0.1	-1.35	0	0	1	0.98576	63.1675	138	1	1.1	0.9;
	42	1	-20.12	5.75	0	0	1	0.98531	63.3165	138	1	1.1	0.9;
	43	1	0.1	-3.79	0	0.58	1	0.98157	60.4704	138	1	1.1	0.9;
	44	2	0	0	0	0	1	0.99868	65.0625	20	1	1.1	0.9;
	45	2	0	0	0	0	1	0.99873	64.8598	20	1	1.1	0.9;
	46	1	0	0	0	0	1	0.98151	60.4841	138	1	1.1	0.9;
	47	1	0	0	0	0	2	0.98347	59.0923	138	2	1.1	0.9;
	48	1	27.046	-16.502	0	0	2	1.0146	71.4302	500	2	1.1	0.9;
	49	1	7.71	13.11	0	4.18	2	0.98347	59.0923	138	2	1.1	0.9;
	50	1	0	0	0	0.02	2	0.95686	58.8243	138	2	1.1	0.9;
	51	1	0.1	-0.4	0	0	2	1.00263	63.9495	138	2	1.1	0.9;
	52	1	0	0	0	0	2	0.95716	58.874	138	2	1.1	0.9;
	53	1	14.8	-77.73	0	44.528	2	1.0196	69.7943	500	2	1.1	0.9;
	54	1	-15.8	-10.4	0	0	2	1.00984	65.2681	138	2	1.1	0.9;
	55	1	-15.92	4.9	0	0	2	1.00659	64.4663	138	2	1.1	0.9;
	56	1	69.38	39.78	0	19.14	2	0.95686	58.8243	138	2	1.1	0.9;
	57	1	27.05	7.96	0	0	2	1.00332	64.0312	138	2	1.1	0.9;
	58	1	0	0	0	0	2	1.0032	64.5825	138	2	1.1	0.9;
	59	1	24.13	11.14	0	0	2	1.00522	63.156	138	2	1.1	0.9;
	60	1	0.1	-0.5	0	0	2	1.00507	64.0153	138	2	1.1	0.9;
	61	1	0.1	-1.78	0	6.93	2	0.96274	59.7064	138	2	1.1	0.9;
	62	1	0	0	0	0	2	0.98365	60.5412	138	2	1.1	0.9;
	63	1	0.1	-0.74	0	0	2	1.00343	64.6061	138	2	1.1	0.9;
	64	2	413	-361.88	0	0	2	1.01073	73.8608	500	2	1.1	0.9;
	65	2	0	0	0	0	2	1.00133	65.1034	20	2	1.1	0.9;
	66	1	0.1	-0.01	0	0	2	1.00459	64.1422	138	2	1.1	0.9;
	67	1	5.77	0.96	0	0	2	0.99293	62.9845	138	2	1.1	0.9;
	68	1	0.1	-4.87	0	0	2	1.00361	62.7671	138	2	1.1	0.9;
	69	1	0.1	-0.74	0	-19.16	2	1.01122	62.6586	138	2	1.1	0.9;
	70	1	0	0	0	0.02	2	1.00522	63.156	138	2	1.1	0.9;
	71	1	0.1	-5.45	0	0	2	0.99983	62.6573	138	2	1.1	0.9;
	72	1	2.2	-3.95	0	0	2	0.97328	60.4754	138	2	1.1	0.9;
	73	1	18.52	7.09	0	8.15	2	0.99911	62.6473	138	2	1.1	0.9;
	74	1	0	0	0	0	2	0.99911	62.6473	138	2	1.1	0.9;
	75	1	29.03	17.98	0	3.66	2	0.98365	60.5412	138	2	1.1	0.9;
	76	1	0.1	-1.43	0	0	2	1.00323	64.5714	138	2	1.1	0.9;
	77	1	0.1	-0.87	0	2.04	2	0.98365	60.5308	138	2	1.1	0.9;
	78	1	8.71	4.56	0	4.24	2	0.95431	58.5446	138	2	1.1	0.9;
	79	1	-0.57	-3.27	0	0	2	1.00519	64.0165	138	2	1.1	0.9;
	80	1	0.1	-0.23	0	0	2	1.00903	65.1337	138	2	1.1	0.9;
	81	1	35.94	20.67	0	9.96	2	0.95716	58.874	138	2	1.1	0.9;
	82	2	0	0	0	0	2	1.00133	65.1034	20	2	1.1	0.9;
	83	1	0.1	-2.37	0	0	2	1.00685	64.2824	138	2	1.1	0.9;
	84	1	0	0	0	0	2	0.97654	58.5631	138	2	1.1	0.9;
	85	1	0.1	-0.73	0	0	2	1.00895	65.1201	138	2	1.1	0.9;
	86	1	54.981	-9.332	0	10.65	2	0.97654	58.5631	138	2	1.1	0.9;
	87	1	0.1	-0.15	0	0	2	1.00341	64.0316	138	2	1.1	0.9;
	88	1	0.1	-1.55	0	0	2	1.00333	64.0658	138	2	1.1	0.9;
	89	2	0	0	0	-8.483	2	1.02799	73.1719	500	2	1.1	0.9;
	90	1	13.72	8.44	0	0	2	1.0032	64.5825	138	2	1.1	0.9;
	91	1	39.53	-28.65	0	0	2	0.98791	58.7245	138	2	1.1	0.9;
	92	1	-0.57	-1	0	0	2	1.00341	64.0317	138	2	1.1	0.9;
	93	1	-0.57	-4.29	0	0	2	1.00505	64.0157	138	2	1.1	0.9;
	94	1	0.1	-1.77	0	0	2	0.98372	60.5596	138	2	1.1	0.9;
	95	1	11.5	4.37	0	0	2	1.00949	65.2048	138	2	1.1	0.9;
	96	2	0	0	0	0	2	1.00133	65.1034	20	2	1.1	0.9;
	97	1	-6.11	1.53	0	0	3	0.99516	69.0944	138	3	1.1	0.9;
	98	1	0.1	-19.54	0	0	3	0.99781	65.8558	138	3	1.1	0.9;
	99	1	0.1	-26.52	0	0	3	1.01191	61.96	138	3	1.1	0.9;
	100	1	0.1	-29.89	0	0	3	1.01657	62.8688	138	3	1.1	0.9;
	101	1	0.1	-22.93	0	0	3	1.01664	62.8496	138	3	1.1	0.9;
	102	1	-8.41	1.87	0	0	3	0.99459	68.8996	138	3	1.1	0.9;
	103	1	0.1	-15.6	0	0	3	1.01648	62.8605	138	3	1.1	0.9;
	104	1	-19.62	26.91	0	0	3	0.99376	68.3272	138	3	1.1	0.9;
	105	2	-41.25	13.02	0	16.087	3	0.99546	69.1695	138	3	1.1	0.9;
	106	1	0.1	-29.89	0	0	3	1.01601	64.4387	138	3	1.1	0.9;
	107	1	33.36	20	0	0	3	1.01106	62.2758	138	3	1.1	0.9;
	108	2	0	0	0	0	3	1.01668	62.8501	138	3	1.1	0.9;
	109	1	0.1	7.83	0	0	3	1.00276	64.2172	138	3	1.1	0.9;
	110	1	0.1	-1.89	0	0	3	1.01189	61.9583	138	3	1.1	0.9;
	111	1	13.77	18.27	0	0	3	1.00283	64.2098	138	3	1.1	0.9;
	112	1	34.14	21.1	0	0	3	1.01188	61.9567	138	3	1.1	0.9;
	113	1	0.1	-10.07	0	0	3	1.00453	66.436	138	3	1.1	0.9;
	114	1	0	0	0	0	3	1.01108	62.2825	138	3	1.1	0.9;
	115	1	-13.32	19.44	0	0	3	1.00441	66.4436	138	3	1.1	0.9;
	116	1	0.1	0	0	0	3	1.01585	64.4514	138	3	1.1	0.9;
	117	2	0	0	0	0	3	1.01289	62.0194	138	3	1.1	0.9;
	118	1	0.1	-19.08	0	0	3	1.01569	64.464	138	3	1.1	0.9;
	119	1	0	0	0	0	3	1.01109	62.2732	138	3	1.1	0.9;
	120	1	37.6	21.67	0	0	3	1.01283	62.0132	138	3	1.1	0.9;
	121	1	27.86	14.21	0	0	3	1.01653	62.8567	138	3	1.1	0.9;
	122	1	13.72	-10.96	0	0	3	1.013	63.2088	138	3	1.1	0.9;
	123	1	0.1	-1.89	0	0	3	1.01283	62.0115	138	3	1.1	0.9;
	124	1	0.1	-4.32	0	0	3	1.01379	63.3251	138	3	1.1	0.9;
	125	1	-0.67	-3.25	0	0	3	1.01661	62.8563	138	3	1.1	0.9;
	126	2	0.1	-19.08	0	0	3	1.00883	65.6314	138	3	1.1	0.9;
	127	1	0	0	0	0	4	0.99074	68.2571	20	4	1.1	0.9;
	128	2	210.5	27.62	0	-49.77	4	0.99211	67.3442	500	4	1.1	0.9;
	129	2	0	0	0	0	4	0.99998	72.995	20	4	1.1	0.9;
	130	2	0	0	0	0	4	0.99998	72.995	20	4	1.1	0.9;
	131	2	0	0	0	0	4	0.99998	72.995	20	4	1.1	0.9;
	132	2	0	0	0	0	4	0.99998	72.995	20	4	1.1	0.9;
	133	2	0	0	0	0	4	0.99998	72.995	20	4	1.1	0.9;
	134	2	0	0	0	0	4	0.99998	72.995	20	4	1.1	0.9;
	135	1	229.054	127.87	0	0	4	0.98779	71.7913	500	4	1.1	0.9;
	136	2	0	0	0	0	4	0.99944	69.1516	20	4	1.1	0.9;
	137	1	17.32	-9.92	0	0	4	0.97556	65.5955	500	4	1.1	0.9;
	138	1	1.38	40.91	0	0	4	0.98482	68.8682	500	4	1.1	0.9;
	139	1	36.54	1.82	0	0	4	0.97687	64.821	345	4	1.1	0.9;
	140	1	287.7	3.44	0	0	4	0.97516	67.1301	500	4	1.1	0.9;
	141	1	90.7	1.7	0	0	4	0.9869	69.1577	345	4	1.1	0.9;
	142	2	0	0	0	0	4	0.98431	68.2571	500	4	1.1	0.9;
	143	2	303.044	131.03	0	0	4	0.99281	73.4811	500	4	1.1	0.9;
	144	1	300.2	-33.04	0	0	4	0.97334	64.4041	500	4	1.1	0.9;
	145	1	207.95	-48.04	0	0	4	0.9884	67.6652	500	4	1.1	0.9;
	146	2	34.44	-34.16	0	16.085	4	0.99481	67.4972	500	4	1.1	0.9;
	147	1	25.536	-11.145	0	0	4	0.99766	70.3909	345	4	1.1	0.9;
	148	1	0	0	0	0	4	0.99074	68.2571	20	4	1.1	0.9;
	149	1	30.93	0.69	0	5.664	4	0.99812	71.5608	345	4	1.1	0.9;
	150	2	14.32	-83.22	0	-23.722	4	0.998	66.5462	500	4	1.1	0.9;
	151	2	189.4	22.18	0	0	4	0.98502	69.2482	345	4	1.1	0.9;
	152	1	1.717	56.78	0	0	4	0.98623	69.1549	500	4	1.1	0.9;
	153	2	0	0	0	0	4	0.99987	73.4692	20	4	1.1	0.9;
	154	1	104.6	39.28	0	0	4	0.97243	63.5001	345	4	1.1	0.9;
	155	1	493.4	-4.59	0	0	4	0.98119	69.628	500	4	1.1	0.9;
	156	1	69.78	13.96	0	0	4	0.96883	63.2858	345	4	1.1	0.9;
	157	2	0	0	0	0	4	0.99987	73.4692	20	4	1.1	0.9;
	158	1	633.629	11.092	0	0	4	0.9781	60.0782	345	4	1.1	0.9;
	159	1	0	0	0	0	4	0.99193	68.2758	20	4	1.1	0.9;
	160	1	694.344	45.83	0	0	4	0.97392	62.129	345	4	1.1	0.9;
	161	1	0	0	0	0	4	0.99193	68.2758	20	4	1.1	0.9;
	162	1	0	0	0	0	4	0.99193	68.2758	20	4	1.1	0.9;
	163	2	0	0	0	0	4	0.99995	70.5236	20	4	1.1	0.9;
	164	1	0	0	0	0	4	0.99193	68.2758	20	4	1.1	0.9;
	165	2	0	0	0	0	4	1.00002	69.4881	20	4	1.1	0.9;
	166	2	0	0	0	0	4	1.00105	77.7988	20	4	1.1	0.9;
	167	2	0	0	0	0	4	1.00105	77.7988	20	4	1.1	0.9;
	168	2	0	0	0	0	4	1.00105	77.7988	20	4	1.1	0.9;
	169	2	0	0	0	0	4	1.00105	77.7988	20	4	1.1	0.9;
	170	1	-24.488	95.16	0	11.383	4	0.98501	68.2758	500	4	1.1	0.9;
	171	1	179.738	-1.646	0	0	4	0.97438	58.8681	345	4	1.1	0.9;
	172	1	80.59	-11.62	0	0	4	0.97137	62.8269	345	4	1.1	0.9;
	173	1	366.6	-3.38	0	0	4	0.97718	66.5732	500	4	1.1	0.9;
	174	1	72.28	5.18	0	0	4	0.97028	62.5357	345	4	1.1	0.9;
	175	1	31.59	-20.02	0	0	4	0.9884	67.0611	500	4	1.1	0.9;
	176	2	0	0	0	0	4	1.00123	75.4903	20	4	1.1	0.9;
	177	1	449.54	10.657	0	0	4	0.99827	71.6071	345	4	1.1	0.9;
	178	1	19.12	-14.57	0	0	4	0.9851	68.2225	500	4	1.1	0.9;
	179	2	0	0	0	0	4	0.99998	72.995	20	4	1.1	0.9;
	180	2	0	0	0	0	4	0.99998	72.995	20	4	1.1	0.9;
	181	1	24.33	-74.57	0	0	4	0.99215	67.3527	500	4	1.1	0.9;
	182	2	0	0	0	0	4	0.99987	73.4692	20	4	1.1	0.9;
	183	1	0	0	0	0	4	1.00155	70.3909	20	4	1.1	0.9;
	184	1	0	0	0	0	4	1.00155	70.3909	20	4	1.1	0.9;
	185	2	0	0	0	0	4	0.99813	71.0101	20	4	1.1	0.9;
	186	1	67.47	4.64	0	0	4	0.97346	63.4807	345	4	1.1	0.9;
	187	2	0	0	0	0	4	1.00123	75.4903	20	4	1.1	0.9;
	188	2	0	0	0	0	4	1.00123	75.4903	20	4	1.1	0.9;
	189	2	0	0	0	0	4	1.00123	75.4903	20	4	1.1	0.9;
	190	1	0	0	0	0	4	0.99283	67.0611	20	4	1.1	0.9;
	191	1	0	0	0	0	4	0.99283	67.0611	20	4	1.1	0.9;
	192	1	0	0	0	0	4	0.99283	67.0611	20	4	1.1	0.9;
	193	1	142	10.03	0	0	4	0.97022	62.6029	345	4	1.1	0.9;
	194	2	0	0	0	0	4	0.98698	71.5437	500	4	1.1	0.9;
	195	1	186.8	12.96	0	0	4	0.97006	62.5227	345	4	1.1	0.9;
	196	1	0	0	0	0	4	0.99428	67.3442	20	4	1.1	0.9;
	197	1	0	0	0	0	4	0.99428	67.3442	20	4	1.1	0.9;
	198	1	0	0	0	0	4	0.99428	67.3442	20	4	1.1	0.9;
	199	1	0	0	0	0	4	0.99428	67.3442	20	4	1.1	0.9;
	200	1	0	0	0	0	4	0.99339	67.6652	20	4	1.1	0.9;
...
];

%% generator data
%	bus	Pg	Qg	Qmax	Qmin	Vg	mBase	status	Pmax	Pmin	Pc1	Pc2	Qc1min	Qc1max	Qc2min	Qc2max	ramp_agc	ramp_10	ramp_30	ramp_q	apf	mu_Pmax	mu_Pmin	mu_Qmax	mu_Qmin
mpc.gen = [
	2	30.9	15.082	35.832	-35.832	0.99873	100	1	100	20.6	0	0	0	0	0	0	0	0	0	0	0	0.0000	0.0000	0.0000	0.0000;
	6	34.326	15.037	35.793	-35.793	0.99868	100	1	100	22.87	0	0	0	0	0	0	0	0	0	0	0	0.0000	0.0000	0.0000	0.0000;
	10	91.882	55.657	500	-500	0.9816	100	1	115.087	76.568	0	0	0	0	0	0	0	0	0	0	0	0.0000	0.0000	0.0000	0.0000;
	12	17.205	37.363	33.333	-33.333	0.98603	100	0	32.205	17.205	0	0	0	0	0	0	0	0	0	0	0	0.0000	0.0000	0.0000	0.0000;
	15	30.9	15.082	35.832	-35.832	0.99873	100	1	100	20.6	0	0	0	0	0	0	0	0	0	0	0	0.0000	0.0000	0.0000	0.0000;
	16	34.31	15.036	35.793	-35.793	0.99868	100	1	100	22.87	0	0	0	0	0	0	0	0	0	0	0	0.0000	0.0000	0.0000	0.0000;
	17	31.487	27.679	33.333	-33.333	0.98117	100	0	46.487	31.487	0	0	0	0	0	0	0	0	0	0	0	0.0000	0.0000	0.0000	0.0000;
	24	34.31	15.036	35.793	-35.793	0.99868	100	1	100	22.87	0	0	0	0	0	0	0	0	0	0	0	0.0000	0.0000	0.0000	0.0000;
	26	30.9	15.082	35.832	-35.832	0.99873	100	1	100	20.6	0	0	0	0	0	0	0	0	0	0	0	0.0000	0.0000	0.0000	0.0000;
	27	34.31	15.036	35.793	-35.793	0.99868	100	1	100	22.87	0	0	0	0	0	0	0	0	0	0	0	0.0000	0.0000	0.0000	0.0000;
	30	16.215	-4.997	33.333	-33.333	0.97937	100	0	31.215	16.215	0	0	0	0	0	0	0	0	0	0	0	0.0000	0.0000	0.0000	0.0000;
	34	34.31	15.036	35.793	-35.793	0.99868	100	1	100	22.87	0	0	0	0	0	0	0	0	0	0	0	0.0000	0.0000	0.0000	0.0000;
	44	34.31	15.036	35.793	-35.793	0.99868	100	1	100	22.87	0	0	0	0	0	0	0	0	0	0	0	0.0000	0.0000	0.0000	0.0000;
	45	30.9	15.082	35.832	-35.832	0.99873	100	1	100	20.6	0	0	0	0	0	0	0	0	0	0	0	0.0000	0.0000	0.0000	0.0000;
	64	662.122	-393.455	500	-500	1.01073	100	1	1195.768	551.768	0	0	0	0	0	0	0	0	0	0	0	0.0000	0.0000	0.0000	0.0000;
	65	16.791	6.628	60.053	-60.053	1.00133	100	1	100	11.19	0	0	0	0	0	0	0	0	0	0	0	0.0000	0.0000	0.0000	0.0000;
	82	16.79	6.628	60.053	-60.053	1.00133	100	1	100	11.19	0	0	0	0	0	0	0	0	0	0	0	0.0000	0.0000	0.0000	0.0000;
	89	0	149.7	149.7	-119.76	1.03116	100	1	274	0	0	0	0	0	0	0	0	0	0	0	0	0.0000	0.0000	0.0000	0.0000;
	96	16.79	6.628	60.053	-60.053	1.00133	100	1	100	11.19	0	0	0	0	0	0	0	0	0	0	0	0.0000	0.0000	0.0000	0.0000;
	105	1.834	15.942	33.333	-33.333	0.99547	100	0	297	1.834	0	0	0	0	0	0	0	0	0	0	0	0.0000	0.0000	0.0000	0.0000;
	108	0	29.348	61.1	-61.1	1.01668	100	1	288	0	0	0	0	0	0	0	0	0	0	0	0	0.0000	0.0000	0.0000	0.0000;
	117	0	30.629	61.1	-61.1	1.01289	100	1	282	0	0	0	0	0	0	0	0	0	0	0	0	0.0000	0.0000	0.0000	0.0000;
	126	47.864	-101.262	500	-500	1.00883	100	1	92.804	39.887	0	0	0	0	0	0	0	0	0	0	0	0.0000	0.0000	0.0000	0.0000;
	128	300.13	-48.964	33.333	-33.333	0.99187	100	0	315.13	300.13	0	0	0	0	0	0	0	0	0	0	0	0.0000	0.0000	0.0000	0.0000;
	129	84.12	18.85	28.324	-28.324	0.99998	200	1	200	56.08	0	0	0	0	0	0	0	0	0	0	0	0.0000	0.0000	0.0000	0.0000;
	130	84.12	18.85	28.324	-28.324	0.99998	200	1	200	56.08	0	0	0	0	0	0	0	0	0	0	0	0.0000	0.0000	0.0000	0.0000;
	131	84.12	18.85	28.324	-28.324	0.99998	200	1	200	56.08	0	0	0	0	0	0	0	0	0	0	0	0.0000	0.0000	0.0000	0.0000;
	132	84.12	18.85	28.324	-28.324	0.99998	200	1	200	56.08	0	0	0	0	0	0	0	0	0	0	0	0.0000	0.0000	0.0000	0.0000;
	133	84.12	18.85	28.324	-28.324	0.99998	200	1	200	56.08	0	0	0	0	0	0	0	0	0	0	0	0.0000	0.0000	0.0000	0.0000;
	134	84.12	18.85	28.324	-28.324	0.99998	200	1	200	56.08	0	0	0	0	0	0	0	0	0	0	0	0.0000	0.0000	0.0000	0.0000;
	136	31.3	10.941	16.775	-16.775	0.99944	100	1	100	20.87	0	0	0	0	0	0	0	0	0	0	0	0.0000	0.0000	0.0000	0.0000;
	142	0	29.856	86.64	-86.64	0.98431	100	1	259	0	0	0	0	0	0	0	0	0	0	0	0	0.0000	0.0000	0.0000	0.0000;
	143	703.839	24.183	500	-500	0.99281	100	1	835.31	586.532	0	0	0	0	0	0	0	0	0	0	0	0.0000	0.0000	0.0000	0.0000;
	146	238.152	15.921	33.333	-33.333	0.9949	100	0	253.152	238.152	0	0	0	0	0	0	0	0	0	0	0	0.0000	0.0000	0.0000	0.0000;
	150	143.58	-23.62	33.333	-33.333	0.99785	100	0	158.58	143.58	0	0	0	0	0	0	0	0	0	0	0	0.0000	0.0000	0.0000	0.0000;
	151	0.678	-75.107	500	-500	0.98502	100	1	49.372	0.565	0	0	0	0	0	0	0	0	0	0	0	0.0000	0.0000	0.0000	0.0000;
	153	262.9	57.94	86.907	-86.907	0.99987	600	1	600	100	0	0	0	0	0	0	0	0	0	0	0	0.0000	0.0000	0.0000	0.0000;
	157	262.9	57.94	86.907	-86.907	0.99987	600	1	600	100	0	0	0	0	0	0	0	0	0	0	0	0.0000	0.0000	0.0000	0.0000;
	163	38.85	14.104	24.045	-24.045	0.99995	100	1	100	25.9	0	0	0	0	0	0	0	0	0	0	0	0.0000	0.0000	0.0000	0.0000;
	165	21.35	14.873	22.313	-22.313	1.00002	100	1	100	14.23	0	0	0	0	0	0	0	0	0	0	0	0.0000	0.0000	0.0000	0.0000;
	166	351.742	81.961	122.954	-122.954	1.00105	800	1	800	200	0	0	0	0	0	0	0	0	0	0	0	0.0000	0.0000	0.0000	0.0000;
	167	351.74	81.961	122.954	-122.954	1.00105	800	1	800	200	0	0	0	0	0	0	0	0	0	0	0	0.0000	0.0000	0.0000	0.0000;
	168	351.74	81.961	122.954	-122.954	1.00105	800	1	800	200	0	0	0	0	0	0	0	0	0	0	0	0.0000	0.0000	0.0000	0.0000;
	169	351.74	81.961	122.954	-122.954	1.00105	800	1	800	200	0	0	0	0	0	0	0	0	0	0	0	0.0000	0.0000	0.0000	0.0000;
	176	301.72	80.807	121.645	-121.645	1.00123	700	1	700	200	0	0	0	0	0	0	0	0	0	0	0	0.0000	0.0000	0.0000	0.0000;
	179	84.12	18.85	28.324	-28.324	0.99998	200	1	200	56.08	0	0	0	0	0	0	0	0	0	0	0	0.0000	0.0000	0.0000	0.0000;
	180	84.12	18.85	28.324	-28.324	0.99998	200	1	200	56.08	0	0	0	0	0	0	0	0	0	0	0	0.0000	0.0000	0.0000	0.0000;
	182	262.9	57.94	86.907	-86.907	0.99987	600	1	600	100	0	0	0	0	0	0	0	0	0	0	0	0.0000	0.0000	0.0000	0.0000;
	185	10.77	2.076	15.593	-15.593	0.99813	100	1	100	7.18	0	0	0	0	0	0	0	0	0	0	0	0.0000	0.0000	0.0000	0.0000;
	187	301.72	80.807	121.645	-121.645	1.00123	700	1	700	200	0	0	0	0	0	0	0	0	0	0	0	0.0000	0.0000	0.0000	0.0000;
	188	301.72	80.807	121.645	-121.645	1.00123	700	1	700	200	0	0	0	0	0	0	0	0	0	0	0	0.0000	0.0000	0.0000	0.0000;
	189	301.72	80.807	121.645	-121.645	1.00123	700	1	700	200	0	0	0	0	0	0	0	0	0	0	0	0.0000	0.0000	0.0000	0.0000;
	194	0	35.956	75.98	-75.98	0.98698	100	1	288	0	0	0	0	0	0	0	0	0	0	0	0	0.0000	0.0000	0.0000	0.0000;
	202	59.677	-36.656	33.333	-33.333	0.9808	100	0	74.677	59.677	0	0	0	0	0	0	0	0	0	0	0	0.0000	0.0000	0.0000	0.0000;
	204	262.9	57.94	86.907	-86.907	0.99987	600	1	600	100	0	0	0	0	0	0	0	0	0	0	0	0.0000	0.0000	0.0000	0.0000;
	210	18.9	10.776	18.224	-18.224	0.99868	100	1	100	12.6	0	0	0	0	0	0	0	0	0	0	0	0.0000	0.0000	0.0000	0.0000;
	213	20.4	12.521	19.221	-19.221	0.99985	100	1	100	13.6	0	0	0	0	0	0	0	0	0	0	0	0.0000	0.0000	0.0000	0.0000;
	216	297.387	9.894	500	-500	0.97537	100	1	371.734	247.822	0	0	0	0	0	0	0	0	0	0	0	0.0000	0.0000	0.0000	0.0000;
	224	20.38	13.291	22.356	-22.356	0.9984	100	1	100	13.59	0	0	0	0	0	0	0	0	0	0	0	0.0000	0.0000	0.0000	0.0000;
	227	0	0	440.92	-440.92	1.01595	100	1	264	0	0	0	0	0	0	0	0	0	0	0	0	0.0000	0.0000	0.0000	0.0000;
	227	309.409	31.241	500	-500	1.01595	100	1	386.761	257.841	0	0	0	0	0	0	0	0	0	0	0	0.0000	0.0000	0.0000	0.0000;
	229	74.86	15.521	25.663	-25.663	0.99833	200	1	200	49.91	0	0	0	0	0	0	0	0	0	0	0	0.0000	0.0000	0.0000	0.0000;
	230	27.38	15	24.926	-24.926	0.99863	100	1	100	18.25	0	0	0	0	0	0	0	0	0	0	0	0.0000	0.0000	0.0000	0.0000;
	232	22.36	13.57	22.3	-22.3	0.99859	100	1	100	14.91	0	0	0	0	0	0	0	0	0	0	0	0.0000	0.0000	0.0000	0.0000;
	237	147.93	-8.897	16.418	-16.418	1.00158	300	1	300	98.62	0	0	0	0	0	0	0	0	0	0	0	0.0000	0.0000	0.0000	0.0000;
	238	22.87	13.495	22.173	-22.173	0.99859	100	1	100	15.25	0	0	0	0	0	0	0	0	0	0	0	0.0000	0.0000	0.0000	0.0000;
	239	382.8	-2.528	195	-2.528	1.00149	800	1	800	200	0	0	0	0	0	0	0	0	0	0	0	0.0000	0.0000	0.0000	0.0000;
	242	37.244	-11.834	500	-500	0.98409	100	1	59.838	31.037	0	0	0	0	0	0	0	0	0	0	0	0.0000	0.0000	0.0000	0.0000;
	244	385.964	-44.587	33.333	-33.333	0.99701	100	0	400.964	385.964	0	0	0	0	0	0	0	0	0	0	0	0.0000	0.0000	0.0000	0.0000;
	247	0.709	26.006	500	-500	0.98573	100	1	26.389	0.591	0	0	0	0	0	0	0	0	0	0	0	0.0000	0.0000	0.0000	0.0000;
	248	324.045	-109.643	500	-500	1.01201	100	1	405.056	270.038	0	0	0	0	0	0	0	0	0	0	0	0.0000	0.0000	0.0000	0.0000;
	255	27.38	15	24.926	-24.926	0.99863	100	1	100	18.25	0	0	0	0	0	0	0	0	0	0	0	0.0000	0.0000	0.0000	0.0000;
	256	74.86	15.521	25.663	-25.663	0.99833	200	1	200	49.91	0	0	0	0	0	0	0	0	0	0	0	0.0000	0.0000	0.0000	0.0000;
	258	22.36	13.57	22.3	-22.3	0.99859	100	1	100	14.91	0	0	0	0	0	0	0	0	0	0	0	0.0000	0.0000	0.0000	0.0000;
	261	74.86	15.521	25.663	-25.663	0.99833	200	1	200	49.91	0	0	0	0	0	0	0	0	0	0	0	0.0000	0.0000	0.0000	0.0000;
	269	20.38	13.291	22.356	-22.356	0.9984	100	1	100	13.59	0	0	0	0	0	0	0	0	0	0	0	0.0000	0.0000	0.0000	0.0000;
	270	382.77	-2.528	193	-2.528	1.00149	800	1	800	200	0	0	0	0	0	0	0	0	0	0	0	0.0000	0.0000	0.0000	0.0000;
	273	22.87	13.495	22.173	-22.173	0.99859	100	1	100	15.25	0	0	0	0	0	0	0	0	0	0	0	0.0000	0.0000	0.0000	0.0000;
	279	31.35	22.872	34.681	-34.681	1.00144	100	1	100	20.9	0	0	0	0	0	0	0	0	0	0	0	0.0000	0.0000	0.0000	0.0000;
	280	25.22	23.884	36.397	-36.397	1.00099	100	1	100	16.81	0	0	0	0	0	0	0	0	0	0	0	0.0000	0.0000	0.0000	0.0000;
	284	230.593	-6.643	500	-500	0.97977	100	1	391.254	192.161	0	0	0	0	0	0	0	0	0	0	0	0.0000	0.0000	0.0000	0.0000;
	289	22.27	13.65	21.855	-21.855	1.00165	100	1	100	14.85	0	0	0	0	0	0	0	0	0	0	0	0.0000	0.0000	0.0000	0.0000;
	292	22.28	30.74	48.867	-48.867	1.00147	100	1	100	14.85	0	0	0	0	0	0	0	0	0	0	0	0.0000	0.0000	0.0000	0.0000;
	293	22.28	30.74	48.867	-48.867	1.00147	100	1	100	14.85	0	0	0	0	0	0	0	0	0	0	0	0.0000	0.0000	0.0000	0.0000;
	295	31.35	22.872	34.681	-34.681	1.00144	100	1	100	20.9	0	0	0	0	0	0	0	0	0	0	0	0.0000	0.0000	0.0000	0.0000;
	300	26.81	18.45	29.48	-29.48	1.00158	100	1	100	17.87	0	0	0	0	0	0	0	0	0	0	0	0.0000	0.0000	0.0000	0.0000;
	301	26.81	18.45	29.48	-29.48	1.00158	100	1	100	17.87	0	0	0	0	0	0	0	0	0	0	0	0.0000	0.0000	0.0000	0.0000;
	302	0	-0	204.62	-204.62	0.97109	100	1	278	0	0	0	0	0	0	0	0	0	0	0	0	0.0000	0.0000	0.0000	0.0000;
	302	1301.69	-50.731	500	-500	0.97109	100	1	1627.112	1084.742	0	0	0	0	0	0	0	0	0	0	0	0.0000	0.0000	0.0000	0.0000;
	303	22.46	33.389	56.988	-56.988	1.0015	100	1	100	14.97	0	0	0	0	0	0	0	0	0	0	0	0.0000	0.0000	0.0000	0.0000;
	306	18.52	26.943	43.221	-43.221	1.00158	100	1	100	12.35	0	0	0	0	0	0	0	0	0	0	0	0.0000	0.0000	0.0000	0.0000;
	307	18.52	26.943	43.221	-43.221	1.00158	100	1	100	12.35	0	0	0	0	0	0	0	0	0	0	0	0.0000	0.0000	0.0000	0.0000;
	308	20.37	13.054	20.897	-20.897	1.00164	100	1	100	13.58	0	0	0	0	0	0	0	0	0	0	0	0.0000	0.0000	0.0000	0.0000;
	313	18.52	26.943	43.221	-43.221	1.00158	100	1	100	12.35	0	0	0	0	0	0	0	0	0	0	0	0.0000	0.0000	0.0000	0.0000;
	314	67.526	-56.788	33.333	-33.333	0.98397	100	0	82.526	67.526	0	0	0	0	0	0	0	0	0	0	0	0.0000	0.0000	0.0000	0.0000;
	317	26.81	18.45	29.48	-29.48	1.00158	100	1	100	17.87	0	0	0	0	0	0	0	0	0	0	0	0.0000	0.0000	0.0000	0.0000;
	318	26.81	18.45	29.48	-29.48	1.00158	100	1	100	17.87	0	0	0	0	0	0	0	0	0	0	0	0.0000	0.0000	0.0000	0.0000;
	322	22.46	33.389	56.988	-56.988	1.0015	100	1	100	14.97	0	0	0	0	0	0	0	0	0	0	0	0.0000	0.0000	0.0000	0.0000;
	323	22.46	33.389	56.988	-56.988	1.0015	100	1	100	14.97	0	0	0	0	0	0	0	0	0	0	0	0.0000	0.0000	0.0000	0.0000;
	324	22.27	13.65	21.855	-21.855	1.00165	100	1	100	14.85	0	0	0	0	0	0	0	0	0	0	0	0.0000	0.0000	0.0000	0.0000;
	325	22.27	13.65	21.855	-21.855	1.00165	100	1	100	14.85	0	0	0	0	0	0	0	0	0	0	0	0.0000	0.0000	0.0000	0.0000;
	326	20.37	13.054	20.897	-20.897	1.00164	100	1	100	13.58	0	0	0	0	0	0	0	0	0	0	0	0.0000	0.0000	0.0000	0.0000;
	327	20.37	13.054	20.897	-20.897	1.00164	100	1	100	13.58	0	0	0	0	0	0	0	0	0	0	0	0.0000	0.0000	0.0000	0.0000;
	328	22.27	13.65	21.855	-21.855	1.00165	100	1	100	14.85	0	0	0	0	0	0	0	0	0	0	0	0.0000	0.0000	0.0000	0.0000;
	334	30.24	2.067	27.216	-27.216	1.01	100	1	37.8	0	0	0	0	0	0	0	0	0	0	0	0	0.0000	0.0000	0.0000	0.0000;
	335	39.645	-0.82	500	-500	0.99928	100	1	54.645	33.037	0	0	0	0	0	0	0	0	0	0	0	0.0000	0.0000	0.0000	0.0000;
	336	39.645	-0.82	500	-500	0.99928	100	1	54.645	33.037	0	0	0	0	0	0	0	0	0	0	0	0.0000	0.0000	0.0000	0.0000;
	339	17.912	-37.048	33.333	-33.333	1.00548	100	0	32.912	17.912	0	0	0	0	0	0	0	0	0	0	0	0.0000	0.0000	0.0000	0.0000;
	343	28.65	3.826	25.785	-25.785	1.01	100	1	35.812	0	0	0	0	0	0	0	0	0	0	0	0	0.0000	0.0000	0.0000	0.0000;
	345	37.5	-2.342	33.75	-33.75	1.01	100	1	46.875	0	0	0	0	0	0	0	0	0	0	0	0	0.0000	0.0000	0.0000	0.0000;
	347	37.5	-4.009	33.75	-33.75	1.01	100	1	46.875	0	0	0	0	0	0	0	0	0	0	0	0	0.0000	0.0000	0.0000	0.0000;
	349	49.68	0.664	44.712	-44.712	1.01	100	1	62.1	0	0	0	0	0	0	0	0	0	0	0	0	0.0000	0.0000	0.0000	0.0000;
	351	34.5	0.64	31.05	-31.05	1.00333	100	1	43.125	0	0	0	0	0	0	0	0	0	0	0	0	0.0000	0.0000	0.0000	0.0000;
	352	34.5	-0.247	31.05	-31.05	1.00667	100	1	43.125	0	0	0	0	0	0	0	0	0	0	0	0	0.0000	0.0000	0.0000	0.0000;
	354	12.23	9.718	500	-500	1.01598	100	1	39.69	10.192	0	0	0	0	0	0	0	0	0	0	0	0.0000	0.0000	0.0000	0.0000;
	356	55.5	-1.891	49.95	-49.95	1.00667	100	1	69.375	0	0	0	0	0	0	0	0	0	0	0	0	0.0000	0.0000	0.0000	0.0000;
	360	15	-0.001	13.5	-13.5	1.01	100	1	18.75	0	0	0	0	0	0	0	0	0	0	0	0	0.0000	0.0000	0.0000	0.0000;
	361	15	-0.001	13.5	-13.5	1.01	100	1	18.75	0	0	0	0	0	0	0	0	0	0	0	0	0.0000	0.0000	0.0000	0.0000;
	362	15	-0.001	13.5	-13.5	1.01	100	1	18.75	0	0	0	0	0	0	0	0	0	0	0	0	0.0000	0.0000	0.0000	0.0000;
	365	28.668	-5.904	33.333	-33.333	1.01229	100	0	43.668	28.668	0	0	0	0	0	0	0	0	0	0	0	0.0000	0.0000	0.0000	0.0000;
	367	69.876	-12.457	63.18	-63.18	1.01	100	1	87.345	0	0	0	0	0	0	0	0	0	0	0	0	0.0000	0.0000	0.0000	0.0000;
	369	27.08	-7.894	24.372	-24.372	1.01	100	1	33.85	0	0	0	0	0	0	0	0	0	0	0	0	0.0000	0.0000	0.0000	0.0000;
	370	25.138	58.932	33.333	-33.333	1.01973	100	0	40.138	25.138	0	0	0	0	0	0	0	0	0	0	0	0.0000	0.0000	0.0000	0.0000;
	374	11.224	-5.634	33.333	-33.333	1.00582	100	0	26.224	11.224	0	0	0	0	0	0	0	0	0	0	0	0.0000	0.0000	0.0000	0.0000;
	375	8.502	-4.94	33.333	-33.333	1.00602	100	0	269	8.502	0	0	0	0	0	0	0	0	0	0	0	0.0000	0.0000	0.0000	0.0000;
	376	19.714	37.444	33.333	-33.333	1.00602	100	0	34.714	19.714	0	0	0	0	0	0	0	0	0	0	0	0.0000	0.0000	0.0000	0.0000;
	377	72.2	11.91	33.333	-33.333	1.01473	100	0	87.2	72.2	0	0	0	0	0	0	0	0	0	0	0	0.0000	0.0000	0.0000	0.0000;
	382	1.204	42.727	500	-500	1.00959	100	1	42.766	1.003	0	0	0	0	0	0	0	0	0	0	0	0.0000	0.0000	0.0000	0.0000;
	383	22.193	49.644	500	-500	1.01197	100	1	49.675	18.494	0	0	0	0	0	0	0	0	0	0	0	0.0000	0.0000	0.0000	0.0000;
	388	8.139	12.159	500	-500	1.01394	100	1	95.575	6.782	0	0	0	0	0	0	0	0	0	0	0	0.0000	0.0000	0.0000	0.0000;
	412	37.5	0.003	33.75	-33.75	1.01	100	1	46.875	0	0	0	0	0	0	0	0	0	0	0	0	0.0000	0.0000	0.0000	0.0000;
	417	26.739	-13.339	500	-500	0.98421	100	1	41.739	22.283	0	0	0	0	0	0	0	0	0	0	0	0.0000	0.0000	0.0000	0.0000;
	421	22.5	0	20.25	-20.25	1.00667	100	1	28.125	0	0	0	0	0	0	0	0	0	0	0	0	0.0000	0.0000	0.0000	0.0000;
	422	18.499	-9.364	500	-500	0.99715	100	1	33.499	15.416	0	0	0	0	0	0	0	0	0	0	0	0.0000	0.0000	0.0000	0.0000;
	438	66	-38.219	59.4	-59.4	1.01	100	1	82.5	0	0	0	0	0	0	0	0	0	0	0	0	0.0000	0.0000	0.0000	0.0000;
	444	0.959	-17.253	33.333	-33.333	0.97942	100	0	261	0.959	0	0	0	0	0	0	0	0	0	0	0	0.0000	0.0000	0.0000	0.0000;
	445	73.567	13.312	33.333	-33.333	1.00428	100	0	88.567	73.567	0	0	0	0	0	0	0	0	0	0	0	0.0000	0.0000	0.0000	0.0000;
	446	43.17	3.579	188	-5.436	0.99863	100	1	100	28.78	0	0	0	0	0	0	0	0	0	0	0	0.0000	0.0000	0.0000	0.0000;
	447	43.17	3.579	197	-5.436	0.99863	100	1	100	28.78	0	0	0	0	0	0	0	0	0	0	0	0.0000	0.0000	0.0000	0.0000;
	448	43.17	3.579	178	-5.436	0.99863	100	1	100	28.78	0	0	0	0	0	0	0	0	0	0	0	0.0000	0.0000	0.0000	0.0000;
	449	73.875	75.022	33.333	-33.333	1.0043	100	0	88.875	73.875	0	0	0	0	0	0	0	0	0	0	0	0.0000	0.0000	0.0000	0.0000;
	452	131.51	21.416	32.634	-32.634	0.99771	300	1	300	87.67	0	0	0	0	0	0	0	0	0	0	0	0.0000	0.0000	0.0000	0.0000;
	458	3.568	-84.968	500	-500	0.97695	100	1	108.038	2.973	0	0	0	0	0	0	0	0	0	0	0	0.0000	0.0000	0.0000	0.0000;
	460	0	61.209	169.4	-169.4	1.00382	100	1	260	0	0	0	0	0	0	0	0	0	0	0	0	0.0000	0.0000	0.0000	0.0000;
	467	43.17	3.579	198	-5.436	0.99863	100	1	100	28.78	0	0	0	0	0	0	0	0	0	0	0	0.0000	0.0000	0.0000	0.0000;
	468	43.17	3.579	190	-5.436	0.99863	100	1	100	28.78	0	0	0	0	0	0	0	0	0	0	0	0.0000	0.0000	0.0000	0.0000;
	469	43.17	3.579	190	-5.436	0.99863	100	1	100	28.78	0	0	0	0	0	0	0	0	0	0	0	0.0000	0.0000	0.0000	0.0000;
	470	43.17	3.579	175	-5.436	0.99863	100	1	100	28.78	0	0	0	0	0	0	0	0	0	0	0	0.0000	0.0000	0.0000	0.0000;
	471	43.17	3.579	175	-5.436	0.99863	100	1	100	28.78	0	0	0	0	0	0	0	0	0	0	0	0.0000	0.0000	0.0000	0.0000;
	472	43.17	3.579	195	-5.436	0.99863	100	1	100	28.78	0	0	0	0	0	0	0	0	0	0	0	0.0000	0.0000	0.0000	0.0000;
	473	43.17	3.579	187	-5.436	0.99863	100	1	100	28.78	0	0	0	0	0	0	0	0	0	0	0	0.0000	0.0000	0.0000	0.0000;
	476	30.93	5.636	184	-9.036	0.99812	100	1	100	20.62	0	0	0	0	0	0	0	0	0	0	0	0.0000	0.0000	0.0000	0.0000;
	477	16.28	17.242	26.983	-26.983	0.99873	100	1	100	10.85	0	0	0	0	0	0	0	0	0	0	0	0.0000	0.0000	0.0000	0.0000;
	478	30.93	5.636	184	-9.036	0.99812	100	1	100	20.62	0	0	0	0	0	0	0	0	0	0	0	0.0000	0.0000	0.0000	0.0000;
	484	0	2.384	189.9	-189.9	0.9896	100	1	279	0	0	0	0	0	0	0	0	0	0	0	0	0.0000	0.0000	0.0000	0.0000;
	484	241.221	153.302	33.333	-33.333	0.9896	100	0	256.221	241.221	0	0	0	0	0	0	0	0	0	0	0	0.0000	0.0000	0.0000	0.0000;
	492	0	49.402	101.08	-101.08	0.99111	100	1	263	0	0	0	0	0	0	0	0	0	0	0	0	0.0000	0.0000	0.0000	0.0000;
	503	0	7.55	127.5	-127.5	1.00372	100	1	283	0	0	0	0	0	0	0	0	0	0	0	0	0.0000	0.0000	0.0000	0.0000;
	505	43.17	3.579	186	-5.436	0.99863	100	1	100	28.78	0	0	0	0	0	0	0	0	0	0	0	0.0000	0.0000	0.0000	0.0000;
	506	43.17	3.579	176	-5.436	0.99863	100	1	100	28.78	0	0	0	0	0	0	0	0	0	0	0	0.0000	0.0000	0.0000	0.0000;
	507	43.17	3.579	197	-5.436	0.99863	100	1	100	28.78	0	0	0	0	0	0	0	0	0	0	0	0.0000	0.0000	0.0000	0.0000;
	508	43.17	3.579	180	-5.436	0.99863	100	1	100	28.78	0	0	0	0	0	0	0	0	0	0	0	0.0000	0.0000	0.0000	0.0000;
	509	43.17	3.579	180	-5.436	0.99863	100	1	100	28.78	0	0	0	0	0	0	0	0	0	0	0	0.0000	0.0000	0.0000	0.0000;
	510	43.17	3.579	178	-5.436	0.99863	100	1	100	28.78	0	0	0	0	0	0	0	0	0	0	0	0.0000	0.0000	0.0000	0.0000;
	511	43.17	3.579	178	-5.436	0.99863	100	1	100	28.78	0	0	0	0	0	0	0	0	0	0	0	0.0000	0.0000	0.0000	0.0000;
	514	43.17	3.579	194	-5.436	0.99863	100	1	100	28.78	0	0	0	0	0	0	0	0	0	0	0	0.0000	0.0000	0.0000	0.0000;
	515	43.17	3.579	183	-5.436	0.99863	100	1	100	28.78	0	0	0	0	0	0	0	0	0	0	0	0.0000	0.0000	0.0000	0.0000;
	516	40.97	-0.582	188	-176	0.99909	100	1	100	27.31	0	0	0	0	0	0	0	0	0	0	0	0.0000	0.0000	0.0000	0.0000;
	517	40.97	-0.582	189	-180	0.99909	100	1	100	27.31	0	0	0	0	0	0	0	0	0	0	0	0.0000	0.0000	0.0000	0.0000;
	518	40.97	-0.582	198	-167	0.99909	100	1	100	27.31	0	0	0	0	0	0	0	0	0	0	0	0.0000	0.0000	0.0000	0.0000;
	520	23.7	13.807	20.459	-20.459	0.99853	100	1	100	15.8	0	0	0	0	0	0	0	0	0	0	0	0.0000	0.0000	0.0000	0.0000;
	521	23.7	13.807	20.459	-20.459	0.99853	100	1	100	15.8	0	0	0	0	0	0	0	0	0	0	0	0.0000	0.0000	0.0000	0.0000;
	522	52.46	-1.315	175	-2.915	1.00051	200	1	200	34.97	0	0	0	0	0	0	0	0	0	0	0	0.0000	0.0000	0.0000	0.0000;
	523	52.46	-1.315	190	-2.915	1.00051	200	1	200	34.97	0	0	0	0	0	0	0	0	0	0	0	0.0000	0.0000	0.0000	0.0000;
	524	52.46	-1.315	190	-2.915	1.00051	200	1	200	34.97	0	0	0	0	0	0	0	0	0	0	0	0.0000	0.0000	0.0000	0.0000;
	525	43.17	3.579	179	-5.436	0.99863	100	1	100	28.78	0	0	0	0	0	0	0	0	0	0	0	0.0000	0.0000	0.0000	0.0000;
	527	0	0	89.92	-89.92	1.0066	100	1	276	0	0	0	0	0	0	0	0	0	0	0	0	0.0000	0.0000	0.0000	0.0000;
	527	171.071	177.806	500	-500	1.0066	100	1	240.197	142.559	0	0	0	0	0	0	0	0	0	0	0	0.0000	0.0000	0.0000	0.0000;
	534	20.926	28.864	500	-500	1.01737	100	1	211.644	17.438	0	0	0	0	0	0	0	0	0	0	0	0.0000	0.0000	0.0000	0.0000;
	536	2.261	-77.884	500	-500	0.99648	100	1	86.354	1.884	0	0	0	0	0	0	0	0	0	0	0	0.0000	0.0000	0.0000	0.0000;
	541	0	-165.55	132.44	-165.55	0.99937	100	1	260	0	0	0	0	0	0	0	0	0	0	0	0	0.0000	0.0000	0.0000	0.0000;
	562	145.761	-38.9	33.333	-33.333	1.01515	100	0	160.761	145.761	0	0	0	0	0	0	0	0	0	0	0	0.0000	0.0000	0.0000	0.0000;
	564	16.79	8.407	60.053	-60.053	1.00133	100	1	100	11.19	0	0	0	0	0	0	0	0	0	0	0	0.0000	0.0000	0.0000	0.0000;
	567	169.475	16.546	40.287	-40.287	0.99879	400	1	415	141.229	0	0	0	0	0	0	0	0	0	0	0	0.0000	0.0000	0.0000	0.0000;
	578	185.765	291.378	33.333	-33.333	0.99962	100	0	200.765	185.765	0	0	0	0	0	0	0	0	0	0	0	0.0000	0.0000	0.0000	0.0000;
	579	0	-24.111	60.96	-60.96	1.00931	100	1	257	0	0	0	0	0	0	0	0	0	0	0	0	0.0000	0.0000	0.0000	0.0000;
	581	0	89.15	89.15	-71.32	1.03093	100	1	274	0	0	0	0	0	0	0	0	0	0	0	0	0.0000	0.0000	0.0000	0.0000;
	589	16.484	-11.753	500	-500	1.0045	100	1	41.796	13.737	0	0	0	0	0	0	0	0	0	0	0	0.0000	0.0000	0.0000	0.0000;
	590	0	-8.217	77.68	-77.68	1.00727	100	1	280	0	0	0	0	0	0	0	0	0	0	0	0	0.0000	0.0000	0.0000	0.0000;
	590	81.242	-42.487	33.333	-33.333	1.00727	100	0	96.242	81.242	0	0	0	0	0	0	0	0	0	0	0	0.0000	0.0000	0.0000	0.0000;
	592	884.618	-129.018	500	-500	1.00681	100	1	1105.772	737.182	0	0	0	0	0	0	0	0	0	0	0	0.0000	0.0000	0.0000	0.0000;
	594	16.79	8.407	60.053	-60.053	1.00133	100	1	100	11.19	0	0	0	0	0	0	0	0	0	0	0	0.0000	0.0000	0.0000	0.0000;
	595	15.909	-83.328	500	-500	1.0128	100	1	41.894	13.257	0	0	0	0	0	0	0	0	0	0	0	0.0000	0.0000	0.0000	0.0000;
	603	0	144.238	149.7	-119.76	1.03116	100	1	268	0	0	0	0	0	0	0	0	0	0	0	0	0.0000	0.0000	0.0000	0.0000;
	606	168	16.41	40.065	-40.065	0.99879	400	1	400	100	0	0	0	0	0	0	0	0	0	0	0	0.0000	0.0000	0.0000	0.0000;
	610	13.865	37.102	500	-500	0.99433	100	1	28.906	11.554	0	0	0	0	0	0	0	0	0	0	0	0.0000	0.0000	0.0000	0.0000;
	613	168	16.41	40.065	-40.065	0.99879	400	1	400	100	0	0	0	0	0	0	0	0	0	0	0	0.0000	0.0000	0.0000	0.0000;
	617	16.79	8.407	60.053	-60.053	1.00133	100	1	100	11.19	0	0	0	0	0	0	0	0	0	0	0	0.0000	0.0000	0.0000	0.0000;
	618	13.146	7.982	500	-500	0.98654	100	1	42.049	10.955	0	0	0	0	0	0	0	0	0	0	0	0.0000	0.0000	0.0000	0.0000;
	620	0	-0	214.58	-214.58	0.99681	100	1	282	0	0	0	0	0	0	0	0	0	0	0	0	0.0000	0.0000	0.0000	0.0000;
...
];

%% branch data
%	fbus	tbus	r	x	b	rateA	rateB	rateC	ratio	angle	status	angmin	angmax
mpc.branch = [
	1	29	1e-07	0.00028	0	167.34	200.81	251.01	0	0	1	-360	360;
	1	1421	0.0001	0.01	0	166.52	199.82	249.78	0	0	1	-360	360;
	3	9	0.00084	0.00355	0	41.29	49.55	74.33	0	0	1	-360	360;
	3	23	0.00094	0.00313	0	52.06	62.47	93.71	0	0	1	-360	360;
	4	12	0.00207	0.00925	0	208.73	250.48	313.1	0	0	1	-360	360;
	4	39	0.00233	0.008	0	206.39	247.67	309.58	0	0	1	-360	360;
	5	30	1e-07	0.00028	0	199.61	239.53	299.41	0	0	1	-360	360;
	5	37	0.00244	0.00805	0	202.03	242.44	303.04	0	0	1	-360	360;
	7	42	1e-07	0.00028	0	27.48	32.97	49.46	0	0	1	-360	360;
	8	12	0.00416	0.0195	0	59.12	70.95	106.42	0	0	1	-360	360;
	9	12	0.00238	0.00783	0	41.39	49.67	74.51	0	0	1	-360	360;
	10	14	0.00246	0.00908	0	168.69	202.43	303.65	0	0	1	-360	360;
	10	25	0.0002	0.00092	0	131.45	157.74	236.61	0	0	1	-360	360;
	10	35	0.01502	0.05819	0	83.45	100.14	150.21	0	0	1	-360	360;
	10	43	0.00186	0.00691	0	73.37	88.04	132.06	0	0	1	-360	360;
	10	1425	0.0001	0.01	0	172.67	207.2	259	0	0	1	-360	360;
	11	25	0.01413	0.06328	0	131.52	157.82	236.73	0	0	1	-360	360;
	12	20	0.02839	0.12908	0	46.08	55.3	82.95	0	0	1	-360	360;
	12	28	0.00496	0.01638	0	180.75	216.9	271.13	0	0	1	-360	360;
	12	41	0.01216	0.05532	0	60.69	72.83	91.04	0	0	1	-360	360;
	12	1419	0.0001	0.01	0	83.7	98.6	125.55	0	0	1	-360	360;
	13	30	0.00384	0.00936	0	402.23	482.68	603.35	0	0	1	-360	360;
	13	40	1e-07	0.00022	0	250.91	301.09	376.37	0	0	1	-360	360;
	14	18	0.00036	0.00122	0	169.4	203.28	304.91	0	0	1	-360	360;
	17	29	1e-07	0.00028	0	110.55	132.66	165.82	0	0	1	-360	360;
	17	1416	0.0001	0.01	0	83.7	98.6	125.55	0	0	1	-360	360;
	18	38	1e-07	0.00027	0	50	60	90	0	0	1	-360	360;
	19	22	0.00057	0.00168	0	115.21	138.25	207.37	0	0	1	-360	360;
	19	43	0.00058	0.00165	0	75.53	90.64	135.96	0	0	1	-360	360;
	19	46	1e-07	0.00022	0	50	60	90	0	0	1	-360	360;
	20	23	0.03085	0.10176	0	51.14	61.37	92.05	0	0	1	-360	360;
	20	33	0.00379	0.01253	0	96.01	115.21	172.82	0	0	1	-360	360;
	21	35	0.0081	0.02869	0	14.99	17.98	26.97	0	0	1	-360	360;
	22	33	0.01025	0.03521	0	116.65	139.98	209.97	0	0	1	-360	360;
	28	29	1e-07	0.00028	0	179.24	215.09	268.86	0	0	1	-360	360;
	29	40	0.00392	0.00918	0	405.62	486.74	608.43	0	0	1	-360	360;
	30	31	1e-07	0.00028	0	27.84	33.41	50.12	0	0	1	-360	360;
	30	404	0.0001	0.01	0	83.7	98.6	125.55	0	0	1	-360	360;
	32	33	0.00703	0.01458	0	21.39	25.66	38.5	0	0	1	-360	360;
	35	36	0.01761	0.06819	0	69.46	83.35	125.03	0	0	1	-360	360;
	36	42	0.00559	0.0192	0	70.03	84.04	126.06	0	0	1	-360	360;
	37	39	0.00229	0.00818	0	204.21	245.06	306.32	0	0	1	-360	360;
	41	42	0.00549	0.01962	0	61.18	73.41	91.77	0	0	1	-360	360;
	47	49	1e-07	0.00022	0	50	60	90	0	0	1	-360	360;
	48	53	0.00109	0.01324	0	505.8	606.96	910.44	0	0	1	-360	360;
	48	850	0.0001	0.01	0	506.77	608.13	760.16	0	0	1	-360	360;
	49	73	0.02804	0.1256	0	86.13	103.35	155.03	0	0	1	-360	360;
	49	77	0.01126	0.04725	0	95.54	114.65	171.98	0	0	1	-360	360;
	49	86	0.00538	0.02004	0	90.42	108.5	162.76	0	0	1	-360	360;
	49	91	0.00269	0.01294	0	121.84	146.21	182.77	0	0	1	-360	360;
	50	56	1e-07	0.00022	0	50	60	90	0	0	1	-360	360;
	51	57	0.00071	0.00182	0	122.8	147.36	221.03	0	0	1	-360	360;
	51	67	0.01037	0.02151	0	121.48	145.78	218.66	0	0	1	-360	360;
	52	81	1e-07	0.00022	0	50	60	90	0	0	1	-360	360;
	53	89	0.00221	0.01891	0	714.68	857.62	1072.02	0	0	1	-360	360;
	53	659	0.0001	0.01	0	603	723.6	904.5	0	0	1	-360	360;
	54	57	0.02972	0.12473	0	62.34	74.81	93.51	0	0	1	-360	360;
	54	57	0.03336	0.11005	0	69.51	83.42	104.27	0	0	1	-360	360;
	54	59	0.02722	0.11886	0	81.09	97.31	121.64	0	0	1	-360	360;
	54	80	0.00278	0.01078	0	58.12	69.75	87.18	0	0	1	-360	360;
	54	95	0.00244	0.00946	0	20.17	24.21	36.31	0	0	1	-360	360;
	54	95	0.00215	0.00965	0	19.93	23.92	35.88	0	0	1	-360	360;
	54	95	0.00244	0.00935	0	20.39	24.47	36.71	0	0	1	-360	360;
	55	83	0.00424	0.01913	0	22.49	26.99	40.49	0	0	1	-360	360;
	56	61	0.00565	0.02021	0	110.14	132.17	198.26	0	0	1	-360	360;
	56	78	0.02361	0.05307	0	50	60	90	0	0	1	-360	360;
	56	81	0.00561	0.02087	0	50	60	90	0	0	1	-360	360;
	56	86	0.04257	0.11516	0	54.54	65.44	81.8	0	0	1	-360	360;
	57	66	0.00094	0.00424	0	72.25	86.7	130.05	0	0	1	-360	360;
	57	72	0.03196	0.14997	0	97.55	117.06	146.32	0	0	1	-360	360;
	57	73	0.01907	0.07388	0	59.12	70.94	106.41	0	0	1	-360	360;
	57	79	0.01882	0.07227	0	50	60	90	0	0	1	-360	360;
	57	87	0.00201	0.00665	0	50	60	90	0	0	1	-360	360;
	57	88	0.00198	0.0068	0	50	60	90	0	0	1	-360	360;
	57	93	0.01804	0.05949	0	50	60	90	0	0	1	-360	360;
	57	93	0.01771	0.06081	0	50	60	90	0	0	1	-360	360;
	57	94	0.02313	0.07629	0	133.15	159.78	239.67	0	0	1	-360	360;
	58	90	1e-07	0.00022	0	50	60	90	0	0	1	-360	360;
	59	68	0.00709	0.01794	0	92.51	111.02	138.77	0	0	1	-360	360;
	59	69	0.02085	0.05283	0	152.62	183.14	228.93	0	0	1	-360	360;
	59	70	1e-07	0.00022	0	50	60	90	0	0	1	-360	360;
	59	83	0.01054	0.04794	0	66.72	80.06	120.09	0	0	1	-360	360;
	60	79	0.0061	0.02982	0	50	60	90	0	0	1	-360	360;
	60	93	0.00096	0.00338	0	50	60	90	0	0	1	-360	360;
	61	67	0.03782	0.07534	0	113.66	136.39	204.58	0	0	1	-360	360;
	62	75	1e-07	0.00022	0	50	60	90	0	0	1	-360	360;
	63	85	0.01987	0.04289	0	57.74	69.28	86.6	0	0	1	-360	360;
	63	90	0.00076	0.00198	0	57.09	68.51	85.64	0	0	1	-360	360;
	64	803	0.0001	0.01	0	551.73	662.08	827.6	0	0	1	-360	360;
	68	71	0.01061	0.00521	0	90.9	109.08	136.34	0	0	1	-360	360;
	69	2001	0.0001	0.01	0	164.83	197.8	247.24	0	0	1	-360	360;
	71	73	0.00191	0.00075	0	89.37	107.24	134.05	0	0	1	-360	360;
	72	81	0.01691	0.07039	0	92.07	110.48	138.1	0	0	1	-360	360;
	73	74	1e-07	0.00028	0	50	60	90	0	0	1	-360	360;
	75	77	0.0001	0.00033	0	96.33	115.59	173.39	0	0	1	-360	360;
	75	94	8e-05	0.0004	0	133.09	159.71	239.57	0	0	1	-360	360;
	76	88	0.03915	0.088	0	42.11	50.54	63.17	0	0	1	-360	360;
	76	90	0.00075	0.00183	0	42.75	51.3	64.13	0	0	1	-360	360;
	79	93	0.00707	0.03316	0	50	60	90	0	0	1	-360	360;
	80	85	0.00026	0.00109	0	57.93	69.51	86.89	0	0	1	-360	360;
	83	95	0.01675	0.06488	0	74.53	89.43	111.79	0	0	1	-360	360;
	84	86	1e-07	0.00028	0	50	60	90	0	0	1	-360	360;
	86	1573	0.0001	0.01	0	83.7	98.6	125.55	0	0	1	-360	360;
	87	92	0.00012	0.00032	0	50	60	90	0	0	1	-360	360;
	89	830	0.0001	0.01	0	501.58	601.89	752.37	0	0	1	-360	360;
	91	1576	0.0001	0.01	0	83.7	98.6	125.55	0	0	1	-360	360;
	97	102	0.00427	0.01643	0	172.47	206.96	258.7	0	0	1	-360	360;
	97	105	0.00232	0.00928	0	165.29	198.35	247.93	0	0	1	-360	360;
	98	109	0.00944	0.04427	0	223.86	268.64	335.79	0	0	1	-360	360;
	98	113	0.0154	0.00602	0	234.46	281.36	351.7	0	0	1	-360	360;
	99	112	1e-07	0.00028	0	98.42	118.11	147.63	0	0	1	-360	360;
	99	119	0.00885	0.02096	0	99.11	118.94	148.67	0	0	1	-360	360;
	100	106	0.00959	0.02332	0	213.42	256.1	320.13	0	0	1	-360	360;
	100	125	1e-07	0.00022	0	147.9	177.48	221.85	0	0	1	-360	360;
	101	114	0.00765	0.01963	0	135.51	162.62	203.27	0	0	1	-360	360;
	101	125	1e-07	0.00022	0	102.05	122.46	183.68	0	0	1	-360	360;
	102	104	0.00749	0.03376	0	182.24	218.69	273.37	0	0	1	-360	360;
	103	121	1e-07	0.00022	0	196.08	235.3	294.13	0	0	1	-360	360;
	103	122	0.0052	0.0139	0	207.38	248.85	311.07	0	0	1	-360	360;
	104	115	0.01632	0.05787	0	215.57	258.69	323.36	0	0	1	-360	360;
	105	572	0.0001	0.01	0	122.69	147.23	184.04	0	0	1	-360	360;
	106	116	1e-07	0.00022	0	168.91	202.7	304.04	0	0	1	-360	360;
	107	114	1e-07	0.00022	0	133.55	160.26	200.33	0	0	1	-360	360;
	107	119	1e-07	0.00022	0	99.05	118.86	148.57	0	0	1	-360	360;
	108	117	0.01019	0.02833	0	131.21	157.46	196.82	0	0	1	-360	360;
	108	125	1e-07	0.00022	0	141.32	169.58	211.98	0	0	1	-360	360;
	109	111	1e-07	0.00022	0	228.24	273.89	342.36	0	0	1	-360	360;
	110	112	1e-07	0.00022	0	83.23	99.87	124.84	0	0	1	-360	360;
	110	123	0.0034	0.00872	0	83.16	99.8	124.74	0	0	1	-360	360;
	111	124	0.00654	0.0272	0	230.88	277.05	346.31	0	0	1	-360	360;
	113	115	1e-07	0.00022	0	240.45	288.54	360.67	0	0	1	-360	360;
	116	118	1e-07	0.00022	0	168.89	202.66	304	0	0	1	-360	360;
	117	120	1e-07	0.00022	0	132.96	159.55	199.44	0	0	1	-360	360;
	118	126	0.00612	0.01467	0	187.82	225.38	338.07	0	0	1	-360	360;
	120	123	1e-07	0.00022	0	82.97	99.56	124.45	0	0	1	-360	360;
	121	125	1e-07	0.00022	0	181.57	217.88	272.36	0	0	1	-360	360;
	122	124	0.00315	0.00128	0	227.26	272.71	340.89	0	0	1	-360	360;
	126	664	0.0001	0.01	0	146.7	176.04	220.05	0	0	1	-360	360;
	128	145	0.00154	0.01634	0	154.77	185.72	278.59	0	0	1	-360	360;
	128	145	0.00157	0.01604	0	157.61	189.13	283.7	0	0	1	-360	360;
	128	146	0.00068	0.0089	0	848.39	1018.07	1272.59	0	0	1	-360	360;
	128	150	0.00194	0.02225	0	287.77	345.33	431.66	0	0	1	-360	360;
	128	181	0.00107	0.00871	0	165.12	198.15	247.68	0	0	1	-360	360;
	128	989	0.0001	0.01	0	516.88	620.26	775.32	0	0	1	-360	360;
	135	194	0.00013	0.00154	0	641.9	770.28	962.85	0	0	1	-360	360;
	135	194	0.00012	0.00157	0	641.35	769.62	962.02	0	0	1	-360	360;
	137	144	0.0008	0.00784	0	1034.07	1240.89	1551.11	0	0	1	-360	360;
	137	173	0.00066	0.00602	0	1061.08	1273.3	1591.62	0	0	1	-360	360;
	138	152	0.00021	0.00288	0	461.79	554.15	692.69	0	0	1	-360	360;
	138	152	0.0002	0.00294	0	452.52	543.03	678.78	0	0	1	-360	360;
	138	173	0.00065	0.00764	0	690.94	829.13	1243.69	0	0	1	-360	360;
	138	173	0.00064	0.0078	0	676.94	812.32	1218.48	0	0	1	-360	360;
	139	141	0.00339	0.02053	0	502.82	603.39	754.24	0	0	1	-360	360;
	139	154	0.00169	0.00933	0	301.05	361.26	541.89	0	0	1	-360	360;
	139	186	0.00105	0.00797	0	558.71	670.46	838.07	0	0	1	-360	360;
	139	205	0.00119	0.00875	0	587.56	705.07	881.34	0	0	1	-360	360;
	140	155	0.00051	0.00549	0	955.8	1146.96	1720.44	0	0	1	-360	360;
	140	173	0.00061	0.00582	0	470.51	564.61	705.77	0	0	1	-360	360;
	141	151	0.00101	0.00719	0	210.09	252.1	378.15	0	0	1	-360	360;
	142	144	0.0008	0.01072	0	809	970.79	1456.19	0	0	1	-360	360;
	142	152	0.00068	0.00648	0	589.27	707.12	883.9	0	0	1	-360	360;
	142	152	0.0003	0.00427	0	524.44	629.33	944	0	0	1	-360	360;
	142	178	0.00067	0.00661	0	180.7	216.84	271.05	0	0	1	-360	360;
	143	155	0.00135	0.01431	0	613.37	736.04	1104.06	0	0	1	-360	360;
	143	194	0.00095	0.00855	0	545.33	654.4	981.6	0	0	1	-360	360;
	143	194	0.00086	0.00783	0	595.56	714.67	1072.01	0	0	1	-360	360;
	143	1793	0.0001	0.01	0	393.51	472.22	590.27	0	0	1	-360	360;
	144	216	0.00051	0.00612	0	353.36	424.03	636.04	0	0	1	-360	360;
	145	170	0.00073	0.00799	0	287.41	344.9	431.12	0	0	1	-360	360;
	145	170	0.00074	0.00784	0	288.79	346.55	433.18	0	0	1	-360	360;
	146	954	0.0001	0.01	0	806.14	967.37	1209.21	0	0	1	-360	360;
	147	1864	0.0001	0.01	0	321.92	386.3	482.88	0	0	1	-360	360;
	149	177	0.00046	0.00303	0	84.61	101.53	152.3	0	0	1	-360	360;
	149	1686	0.0001	0.01	0	127.01	152.42	190.52	0	0	1	-360	360;
	150	181	0.00317	0.02987	0	204.69	245.63	307.04	0	0	1	-360	360;
	150	2400	0.0001	0.01	0	465.57	558.69	698.36	0	0	1	-360	360;
	151	1799	0.0001	0.01	0	310.58	372.7	465.88	0	0	1	-360	360;
	152	155	0.00183	0.01686	0	420.39	504.47	630.59	0	0	1	-360	360;
	152	181	0.00171	0.01889	0	235.26	282.31	352.89	0	0	1	-360	360;
	154	156	0.00321	0.00176	0	264.15	316.99	396.23	0	0	1	-360	360;
	155	194	0.00052	0.00481	0	1385.46	1662.55	2078.19	0	0	1	-360	360;
	155	194	0.0004	0.00479	0	1388.33	1665.99	2082.49	0	0	1	-360	360;
	156	201	0.00152	0.00803	0	221.04	265.24	331.56	0	0	1	-360	360;
	158	171	0.002	0.01118	0	242.59	291.11	436.66	0	0	1	-360	360;
	160	201	0.00386	0.02406	0	158.72	190.46	238.08	0	0	1	-360	360;
	160	208	0.00281	0.02183	0	134.23	161.08	201.35	0	0	1	-360	360;
	170	178	0.00064	0.00772	0	157.85	189.42	236.77	0	0	1	-360	360;
	170	202	0.00101	0.0091	0	405.96	487.16	608.94	0	0	1	-360	360;
	170	2448	0.0001	0.01	0	606.73	728.07	910.09	0	0	1	-360	360;
	172	193	0.00054	0.00172	0	273.7	328.44	492.66	0	0	1	-360	360;
	172	205	0.00058	0.00194	0	383.68	460.42	690.63	0	0	1	-360	360;
	173	175	0.00149	0.01224	0	257.77	309.32	463.99	0	0	1	-360	360;
	174	195	0.00034	0.00245	0	147.03	176.44	220.55	0	0	1	-360	360;
	174	201	0.00105	0.00837	0	234.62	281.55	351.94	0	0	1	-360	360;
	175	181	0.00078	0.00609	0	261.25	313.5	470.25	0	0	1	-360	360;
	177	1887	0.0001	0.01	0	328.3	393.96	492.45	0	0	1	-360	360;
	186	205	0.00031	0.00236	0	474.17	569	711.25	0	0	1	-360	360;
	193	195	0.00053	0.00175	0	267.45	320.94	401.17	0	0	1	-360	360;
	195	201	0.00084	0.00672	0	346.11	415.34	519.17	0	0	1	-360	360;
	201	205	0.00083	0.00539	0	351.26	421.51	526.89	0	0	1	-360	360;
...
];

%% bus names
mpc.bus_name = {
	'A1          ';
	'A2          ';
	'A3          ';
	'A4          ';
	'A5          ';
	'A6          ';
	'A7          ';
	'A8          ';
	'A9          ';
	'A10         ';
	'A11         ';
	'A12         ';
	'A13         ';
	'A14         ';
	'A15         ';
	'A16         ';
	'A17         ';
	'A18         ';
	'A19         ';
	'A20         ';
	'A21         ';
	'A22         ';
	'A23         ';
	'A24         ';
	'A25         ';
	'A26         ';
	'A27         ';
	'A28         ';
	'A29         ';
	'A30         ';
	'A31         ';
	'A32         ';
	'A33         ';
	'A34         ';
	'A35         ';
	'A36         ';
	'A37         ';
	'A38         ';
	'A39         ';
	'A40         ';
	'A41         ';
	'A42         ';
	'A43         ';
	'A44         ';
	'A45         ';
	'A46         ';
	'B47         ';
	'B48         ';
	'B49         ';
	'B50         ';
	'B51         ';
	'B52         ';
	'B53         ';
	'B54         ';
	'B55         ';
	'B56         ';
	'B57         ';
	'B58         ';
	'B59         ';
	'B60         ';
	'B61         ';
	'B62         ';
	'B63         ';
	'B64         ';
	'B65         ';
	'B66         ';
	'B67         ';
	'B68         ';
	'B69         ';
	'B70         ';
	'B71         ';
	'B72         ';
	'B73         ';
	'B74         ';
	'B75         ';
	'B76         ';
	'B77         ';
	'B78         ';
	'B79         ';
	'B80         ';
	'B81         ';
	'B82         ';
	'B83         ';
	'B84         ';
	'B85         ';
	'B86         ';
	'B87         ';
	'B88         ';
	'B89         ';
	'B90         ';
	'B91         ';
	'B92         ';
	'B93         ';
	'B94         ';
	'B95         ';
	'B96         ';
	'C97         ';
	'C98         ';
	'C99         ';
	'C100        ';
	'C101        ';
	'C102        ';
	'C103        ';
	'C104        ';
	'C105        ';
	'C106        ';
	'C107        ';
	'C108        ';
	'C109        ';
	'C110        ';
	'C111        ';
	'C112        ';
	'C113        ';
	'C114        ';
	'C115        ';
	'C116        ';
	'C117        ';
	'C118        ';
	'C119        ';
	'C120        ';
	'C121        ';
	'C122        ';
	'C123        ';
	'C124        ';
	'C125        ';
	'C126        ';
	'D127        ';
	'D128        ';
	'D129        ';
	'D130        ';
	'D131        ';
	'D132        ';
	'D133        ';
	'D134        ';
	'D135        ';
	'D136        ';
	'D137        ';
	'D138        ';
	'D139        ';
	'D140        ';
	'D141        ';
	'D142        ';
	'D143        ';
	'D144        ';
	'D145        ';
	'D146        ';
	'D147        ';
	'D148        ';
	'D149        ';
	'D150        ';
	'D151        ';
	'D152        ';
	'D153        ';
	'D154        ';
	'D155        ';
	'D156        ';
	'D157        ';
	'D158        ';
	'D159        ';
	'D160        ';
	'D161        ';
	'D162        ';
	'D163        ';
	'D164        ';
	'D165        ';
	'D166        ';
	'D167        ';
	'D168        ';
	'D169        ';
	'D170        ';
	'D171        ';
	'D172        ';
	'D173        ';
	'D174        ';
	'D175        ';
	'D176        ';
	'D177        ';
	'D178        ';
	'D179        ';
	'D180        ';
	'D181        ';
	'D182        ';
	'D183        ';
	'D184        ';
	'D185        ';
	'D186        ';
	'D187        ';
	'D188        ';
	'D189        ';
	'D190        ';
	'D191        ';
	'D192        ';
	'D193        ';
	'D194        ';
	'D195        ';
	'D196        ';
	'D197        ';
	'D198        ';
	'D199        ';
	'D200        ';
	'D201        ';
	'D202        ';
	'D203        ';
	'D204        ';
	'D205        ';
	'D206        ';
	'D207        ';
	'D208        ';
	'D209        ';
	'D210        ';
	'D211        ';
	'D212        ';
	'D213        ';
	'D214        ';
	'D215        ';
	'D216        ';
	'E217        ';
	'E218        ';
	'E219        ';
	'E220        ';
	'E221        ';
	'E222        ';
	'E223        ';
	'E224        ';
	'E225        ';
	'E226        ';
	'E227        ';
	'E228        ';
	'E229        ';
	'E230        ';
	'E231        ';
	'E232        ';
	'E233        ';
	'E234        ';
	'E235        ';
	'E236        ';
	'E237        ';
	'E238        ';
	'E239        ';
	'E240        ';
	'E241        ';
	'E242        ';
	'E243        ';
	'E244        ';
	'E245        ';
	'E246        ';
	'E247        ';
	'E248        ';
	'E249        ';
	'E250        ';
	'E251        ';
	'E252        ';
	'E253        ';
	'E254        ';
	'E255        ';
	'E256        ';
	'E257        ';
	'E258        ';
	'E259        ';
	'E260        ';
	'E261        ';
	'E262        ';
	'E263        ';
	'E264        ';
	'E265        ';
	'E266        ';
	'E267        ';
	'E268        ';
	'E269        ';
	'E270        ';
	'E271        ';
	'E272        ';
	'E273        ';
	'E274        ';
	'E275        ';
	'E276        ';
	'E277        ';
	'F278        ';
	'F279        ';
	'F280        ';
	'F281        ';
	'F282        ';
	'F283        ';
	'F284        ';
	'F285        ';
	'F286        ';
	'F287        ';
	'F288        ';
	'F289        ';
	'F290        ';
	'F291        ';
	'F292        ';
	'F293        ';
	'F294        ';
	'F295        ';
	'F296        ';
	'F297        ';
	'F298        ';
	'F299        ';
	'F300        ';
	'F301        ';
	'F302        ';
	'F303        ';
	'F304        ';
	'F305        ';
	'F306        ';
	'F307        ';
	'F308        ';
	'F309        ';
	'F310        ';
	'F311        ';
	'F312        ';
	'F313        ';
	'F314        ';
	'F315        ';
	'F316        ';
	'F317        ';
	'F318        ';
	'F319        ';
	'F320        ';
	'F321        ';
	'F322        ';
	'F323        ';
	'F324        ';
	'F325        ';
	'F326        ';
	'F327        ';
	'F328        ';
	'G329        ';
	'G330        ';
	'G331        ';
	'G332        ';
	'G333        ';
	'G334        ';
	'G335        ';
	'G336        ';
	'G337        ';
	'G338        ';
	'G339        ';
	'G340        ';
	'G341        ';
	'G342        ';
	'G343        ';
	'G344        ';
	'G345        ';
	'G346        ';
	'G347        ';
	'G348        ';
	'G349        ';
	'G350        ';
	'G351        ';
	'G352        ';
	'G353        ';
	'G354        ';
	'G355        ';
	'G356        ';
	'G357        ';
	'G358        ';
	'G359        ';
	'G360        ';
	'G361        ';
	'G362        ';
	'G363        ';
	'G364        ';
	'G365        ';
	'G366        ';
	'G367        ';
	'G368        ';
	'G369        ';
	'G370        ';
	'G371        ';
	'G372        ';
	'G373        ';
	'G374        ';
	'G375        ';
	'G376        ';
	'G377        ';
	'G378        ';
	'G379        ';
	'G380        ';
	'G381        ';
	'G382        ';
	'G383        ';
	'G384        ';
	'G385        ';
	'G386        ';
	'G387        ';
	'G388        ';
	'G389        ';
	'G390        ';
	'G391        ';
	'G392        ';
	'G393        ';
	'G394        ';
	'G395        ';
	'G396        ';
	'G397        ';
	'G398        ';
	'G399        ';
	'G400        ';
	'G401        ';
	'G402        ';
	'G403        ';
	'G404        ';
	'G405        ';
	'G406        ';
	'G407        ';
	'G408        ';
	'G409        ';
	'G410        ';
	'G411        ';
	'G412        ';
	'G413        ';
	'G414        ';
	'G415        ';
	'G416        ';
	'G417        ';
	'G418        ';
	'G419        ';
	'G420        ';
	'G421        ';
	'G422        ';
	'G423        ';
	'G424        ';
	'G425        ';
	'G426        ';
	'G427        ';
	'G428        ';
	'G429        ';
	'G430        ';
	'G431        ';
	'G432        ';
	'G433        ';
	'G434        ';
	'G435        ';
	'G436        ';
	'G437        ';
	'G438        ';
	'G439        ';
	'G440        ';
	'G441        ';
	'H442        ';
	'H443        ';
	'H444        ';
	'H445        ';
	'H446        ';
	'H447        ';
	'H448        ';
	'H449        ';
	'H450        ';
	'H451        ';
	'H452        ';
	'H453        ';
	'H454        ';
	'H455        ';
	'H456        ';
	'H457        ';
	'H458        ';
	'H459        ';
	'H460        ';
	'H461        ';
	'H462        ';
	'H463        ';
	'H464        ';
	'H465        ';
	'H466        ';
	'H467        ';
	'H468        ';
	'H469        ';
	'H470        ';
	'H471        ';
	'H472        ';
	'H473        ';
	'H474        ';
	'H475        ';
	'H476        ';
	'H477        ';
	'H478        ';
	'H479        ';
	'H480        ';
	'H481        ';
	'H482        ';
	'H483        ';
	'H484        ';
	'H485        ';
	'H486        ';
	'H487        ';
	'H488        ';
	'H489        ';
	'H490        ';
	'H491        ';
	'H492        ';
	'H493        ';
	'H494        ';
	'H495        ';
	'H496        ';
	'H497        ';
	'H498        ';
	'H499        ';
	'H500        ';
	'H501        ';
	'H502        ';
	'H503        ';
	'H504        ';
	'H505        ';
	'H506        ';
	'H507        ';
	'H508        ';
	'H509        ';
	'H510        ';
	'H511        ';
	'H512        ';
	'H513        ';
	'H514        ';
	'H515        ';
	'H516        ';
	'H517        ';
	'H518        ';
	'H519        ';
	'H520        ';
	'H521        ';
	'H522        ';
	'H523        ';
	'H524        ';
	'H525        ';
	'H526        ';
	'H527        ';
	'H528        ';
	'H529        ';
	'H530        ';
	'I531        ';
	'I532        ';
	'I533        ';
	'I534        ';
	'I535        ';
	'I536        ';
	'I537        ';
	'I538        ';
	'I539        ';
	'I540        ';
	'I541        ';
	'I542        ';
	'I543        ';
	'I544        ';
	'I545        ';
	'I546        ';
	'I547        ';
	'I548        ';
	'I549        ';
	'I550        ';
	'I551        ';
	'I552        ';
	'I553        ';
	'I554        ';
	'I555        ';
	'I556        ';
	'I557        ';
	'I558        ';
	'I559        ';
	'I560        ';
	'I561        ';
	'I562        ';
	'I563        ';
	'I564        ';
	'I565        ';
	'I566        ';
	'I567        ';
	'I568        ';
	'I569        ';
	'I570        ';
	'I571        ';
	'I572        ';
	'I573        ';
	'I574        ';
	'I575        ';
	'I576        ';
	'I577        ';
	'I578        ';
	'I579        ';
	'I580        ';
	'I581        ';
	'I582        ';
	'I583        ';
	'I584        ';
	'I585        ';
	'I586        ';
	'I587        ';
	'I588        ';
	'I589        ';
	'I590        ';
	'I591        ';
	'I592        ';
	'I593        ';
	'I594        ';
	'I595        ';
	'I596        ';
	'I597        ';
	'I598        ';
	'I599        ';
	'I600        ';
	'I601        ';
	'I602        ';
	'I603        ';
	'I604        ';
	'I605        ';
	'I606        ';
	'I607        ';
	'I608        ';
	'I609        ';
	'I610        ';
	'I611        ';
	'I612        ';
	'I613        ';
	'I614        ';
	'I615        ';
	'I616        ';
	'I617        ';
	'J618        ';
	'J619        ';
	'J620        ';
	'J621        ';
	'J622        ';
	'J623        ';
	'J624        ';
	'J625        ';
	'J626        ';
	'J627        ';
	'J628        ';
	'J629        ';
	'J630        ';
	'J631        ';
	'J632        ';
	'J633        ';
	'J634        ';
	'J635        ';
	'J636        ';
	'J637        ';
	'J638        ';
	'J639        ';
	'J640        ';
	'J641        ';
	'J642        ';
	'J643        ';
	'J644        ';
	'J645        ';
	'J646        ';
	'J647        ';
	'J648        ';
	'J649        ';
	'J650        ';
	'J651        ';
	'J652        ';
	'J653        ';
	'J654        ';
	'J655        ';
	'J656        ';
	'J657        ';
	'J658        ';
	'J659        ';
	'J660        ';
	'J661        ';
	'J662        ';
	'J663        ';
	'J664        ';
	'J665        ';
	'J666        ';
	'J667        ';
	'J668        ';
	'J669        ';
	'J670        ';
	'J671        ';
	'J672        ';
	'J673        ';
	'J674        ';
	'J675        ';
	'J676        ';
	'J677        ';
	'J678        ';
	'J679        ';
	'J680        ';
	'J681        ';
	'J682        ';
	'J683        ';
	'J684        ';
	'J685        ';
	'J686        ';
	'J687        ';
	'J688        ';
	'J689        ';
	'J690        ';
	'J691        ';
	'J692        ';
	'J693        ';
	'J694        ';
	'J695        ';
	'J696        ';
	'J697        ';
	'J698        ';
	'J699        ';
	'J700        ';
	'J701        ';
	'J702        ';
	'J703        ';
	'J704        ';
	'J705        ';
	'J706        ';
	'J707        ';
	'J708        ';
	'J709        ';
	'J710        ';
	'J711        ';
	'J712        ';
	'J713        ';
	'J714        ';
	'J715        ';
	'J716        ';
	'J717        ';
	'J718        ';
	'J719        ';
	'J720        ';
	'J721        ';
	'J722        ';
	'J723        ';
	'J724        ';
	'J725        ';
	'J726        ';
	'J727        ';
	'J728        ';
	'J729        ';
	'J730        ';
	'J731        ';
	'J732        ';
	'J733        ';
	'J734        ';
	'J735        ';
	'J736        ';
	'J737        ';
	'J738        ';
	'J739        ';
	'J740        ';
	'J741        ';
	'J742        ';
	'J743        ';
	'J744        ';
	'J745        ';
	'K746        ';
	'K747        ';
	'K748        ';
	'K749        ';
	'K750        ';
	'K751        ';
	'K752        ';
	'K753        ';
	'K754        ';
	'K755        ';
	'K756        ';
	'K757        ';
	'K758        ';
	'K759        ';
	'K760        ';
	'K761        ';
	'K762        ';
	'K763        ';
	'K764        ';
	'K765        ';
	'K766        ';
	'K767        ';
	'K768        ';
	'K769        ';
	'K770        ';
	'K771        ';
	'K772        ';
	'K773        ';
	'K774        ';
	'K775        ';
	'K776        ';
	'K777        ';
	'K778        ';
	'K779        ';
	'K780        ';
	'K781        ';
	'K782        ';
	'K783        ';
	'K784        ';
	'K785        ';
	'K786        ';
	'K787        ';
	'K788        ';
	'K789        ';
	'K790        ';
	'K791        ';
	'K792        ';
	'K793        ';
	'K794        ';
	'K795        ';
	'L796        ';
	'L797        ';
	'L798        ';
	'L799        ';
	'L800        ';
	'L801        ';
	'L802        ';
	'L803        ';
	'L804        ';
	'L805        ';
	'L806        ';
	'L807        ';
	'L808        ';
	'L809        ';
	'L810        ';
	'L811        ';
	'L812        ';
	'L813        ';
	'L814        ';
	'L815        ';
	'L816        ';
	'L817        ';
	'L818        ';
	'L819        ';
	'L820        ';
	'L821        ';
	'L822        ';
	'L823        ';
	'L824        ';
	'L825        ';
	'L826        ';
	'L827        ';
	'L828        ';
	'L829        ';
	'L830        ';
	'L831        ';
	'L832        ';
	'L833        ';
	'L834        ';
	'L835        ';
	'L836        ';
	'L837        ';
	'L838        ';
	'L839        ';
	'L840        ';
	'L841        ';
	'L842        ';
	'L843        ';
	'L844        ';
	'L845        ';
	'L846        ';
	'L847        ';
	'L848        ';
	'L849        ';
	'L850        ';
	'L851        ';
	'L852        ';
	'L853        ';
	'L854        ';
	'L855        ';
	'L856        ';
	'L857        ';
	'L858        ';
	'L859        ';
	'L860        ';
	'L861        ';
	'M862        ';
	'M863        ';
	'M864        ';
	'M865        ';
	'M866        ';
	'M867        ';
	'M868        ';
	'M869        ';
	'M870        ';
	'M871        ';
	'M872        ';
	'M873        ';
	'M874        ';
	'M875        ';
	'M876        ';
	'M877        ';
	'M878        ';
	'M879        ';
	'M880        ';
	'M881        ';
	'M882        ';
	'M883        ';
...